12
Coordinates from ORCA-job /dev/shm/3470106/uracil_s0.inp-3470106/uracil_s0 E -414.081271608623
  C           0.71412339686733      1.01222441223537      0.55367494914964
  N           1.48807208059060      0.07317955008839     -0.14647993158206
  C           1.15059608988241     -1.20757483979554     -0.52493872382531
  N          -0.13403472615777     -1.56358626100390     -0.13727773908770
  C          -0.97631490810105     -0.73277410189309      0.54698011005902
  C          -0.61339723671182      0.51788732903707      0.90239826363539
  O           1.88097448407424     -1.95451594288477     -1.12922688393583
  H          -1.28263638188745      1.18083774909010      1.44701340436961
  O           1.15940406231415      2.10681714797686      0.81126521121897
  H           2.42133967465250      0.37471735329905     -0.41079794038990
  H          -0.41592923765199     -2.49983445206892     -0.39929980394807
  H          -1.95796717437115     -1.14813419428061      0.78501165493622
