12
Coordinates from ORCA-job /dev/shm/3470109/uracil_s0_vee.inp-3470109/uracil_s0_vee E -413.925415960483
  C           0.65583620547944      0.94991603543814      0.55203146965197
  N           1.49132913298612      0.08755615989645     -0.14187879431253
  C           1.13289452336031     -1.21040344990516     -0.51882274340715
  N          -0.12461513274529     -1.56700377251799     -0.14272642618745
  C          -1.01836491479123     -0.75322907208627      0.55622744761675
  C          -0.60629785630822      0.54101290458794      0.90878897355332
  O           1.90405220892969     -1.91838403448045     -1.12430537539998
  H          -1.26118571044648      1.21699774041637      1.45284146407714
  O           1.21948948535248      2.10901000649443      0.78706090504642
  H           2.42318483014557      0.37989971594910     -0.40877768795113
  H          -0.38964077534456     -2.50545240524837     -0.41268927980166
  H          -1.99245187311783     -1.17067607874421      0.79057261771429
