12
Coordinates from ORCA-job /dev/shm/3470109/uracil_s0_vee.inp-3470109/uracil_s0_vee E -413.902891224511
  C       0.714123      1.012224      0.553675
  N       1.488072      0.073180     -0.146480
  C       1.150596     -1.207575     -0.524939
  N      -0.134035     -1.563586     -0.137278
  C      -0.976315     -0.732774      0.546980
  C      -0.613397      0.517887      0.902398
  O       1.880974     -1.954516     -1.129227
  H      -1.282636      1.180838      1.447013
  O       1.159404      2.106817      0.811265
  H       2.421340      0.374717     -0.410798
  H      -0.415929     -2.499834     -0.399300
  H      -1.957967     -1.148134      0.785012
12
Coordinates from ORCA-job /dev/shm/3470109/uracil_s0_vee.inp-3470109/uracil_s0_vee E -413.919838729177
  C       0.683889      0.989766      0.556898
  N       1.483356      0.070084     -0.145758
  C       1.139604     -1.215748     -0.523639
  N      -0.127271     -1.578675     -0.146220
  C      -0.993287     -0.742814      0.549939
  C      -0.607455      0.533543      0.906243
  O       1.896640     -1.937399     -1.128838
  H      -1.262957      1.209255      1.450435
  O       1.177600      2.125685      0.811334
  H       2.415473      0.370304     -0.409994
  H      -0.398384     -2.514485     -0.412528
  H      -1.972976     -1.150274      0.790453
12
Coordinates from ORCA-job /dev/shm/3470109/uracil_s0_vee.inp-3470109/uracil_s0_vee E -413.925057054612
  C       0.655757      0.956783      0.554892
  N       1.482731      0.078859     -0.141952
  C       1.130344     -1.214180     -0.519199
  N      -0.124636     -1.579189     -0.147594
  C      -1.009819     -0.751048      0.553456
  C      -0.599033      0.540420      0.905532
  O       1.908624     -1.915633     -1.124958
  H      -1.246985      1.223492      1.449696
  O       1.201339      2.114778      0.797094
  H       2.413544      0.378055     -0.405852
  H      -0.390038     -2.517201     -0.417147
  H      -1.987597     -1.155893      0.794353
12
Coordinates from ORCA-job /dev/shm/3470109/uracil_s0_vee.inp-3470109/uracil_s0_vee E -413.925367546523
  C       0.656391      0.951835      0.552627
  N       1.488677      0.084951     -0.141892
  C       1.130826     -1.211066     -0.518099
  N      -0.125504     -1.573498     -0.144923
  C      -1.017475     -0.754371      0.555317
  C      -0.604404      0.540040      0.907640
  O       1.907791     -1.914035     -1.124068
  H      -1.255343      1.220126      1.451761
  O       1.216780      2.111555      0.789303
  H       2.419876      0.380511     -0.407394
  H      -0.389780     -2.511841     -0.415130
  H      -1.993606     -1.164963      0.793179
12
Coordinates from ORCA-job /dev/shm/3470109/uracil_s0_vee.inp-3470109/uracil_s0_vee E -413.925436354837
  C       0.656031      0.949997      0.552009
  N       1.490859      0.087186     -0.141874
  C       1.131936     -1.210254     -0.518309
  N      -0.124944     -1.569010     -0.143377
  C      -1.018775     -0.754222      0.555942
  C      -0.606282      0.540274      0.908519
  O       1.905387     -1.916336     -1.123967
  H      -1.259621      1.217785      1.452598
  O       1.220315      2.109598      0.786975
  H       2.422482      0.380601     -0.408331
  H      -0.389508     -2.507431     -0.413510
  H      -1.993650     -1.168945      0.791650
12
Coordinates from ORCA-job /dev/shm/3470109/uracil_s0_vee.inp-3470109/uracil_s0_vee E -413.925457785476
  C       0.655859      0.949790      0.552022
  N       1.491346      0.087579     -0.141864
  C       1.132724     -1.210342     -0.518578
  N      -0.124637     -1.567349     -0.142822
  C      -1.018537     -0.753572      0.556136
  C      -0.606462      0.540688      0.908789
  O       1.904303     -1.917908     -1.124249
  H      -1.260949      1.217076      1.452832
  O       1.219956      2.109088      0.786825
  H       2.423095      0.380193     -0.408717
  H      -0.389581     -2.505792     -0.412873
  H      -1.992888     -1.170208      0.790820
12
Coordinates from ORCA-job /dev/shm/3470109/uracil_s0_vee.inp-3470109/uracil_s0_vee E -413.925415960483
  C       0.655836      0.949916      0.552031
  N       1.491329      0.087556     -0.141879
  C       1.132895     -1.210403     -0.518823
  N      -0.124615     -1.567004     -0.142726
  C      -1.018365     -0.753229      0.556227
  C      -0.606298      0.541013      0.908789
  O       1.904052     -1.918384     -1.124305
  H      -1.261186      1.216998      1.452841
  O       1.219489      2.109010      0.787061
  H       2.423185      0.379900     -0.408778
  H      -0.389641     -2.505452     -0.412689
  H      -1.992452     -1.170676      0.790573
