12
 Energy =    -413.2508221214
 C    0.7161260    0.9937050    0.5446110  0.00    0.3920042    1.0808580    0.2743829
 N    1.5295540    0.0964200   -0.1547030  0.00   -0.6081521   -0.4373498    0.0752544
 C    1.1486240   -1.1902110   -0.5167550  0.00    0.8610241   -0.9639949   -0.7452836
 N   -0.1416010   -1.5743020   -0.1391610  0.00    0.0944393    0.1689994    0.0293041
 C   -1.0041440   -0.7553880    0.5491890  0.00    0.0302426    0.4875092    0.1847764
 C   -0.6222420    0.5095480    0.9031980  0.00    0.1068101   -0.4175837   -0.2135711
 O    1.8970630   -1.9704450   -1.1408400  0.00   -0.7170055    0.7783588    0.6100131
 H   -1.2681640    1.1883870    1.4453990  0.00   -0.1130585    0.0938178    0.0845133
 O    1.1473690    2.1235380    0.8224610  0.00   -0.3041119   -0.7074148   -0.1595994
 H    2.4633280    0.3946770   -0.4201850  0.00    0.0623684    0.0250818   -0.0156462
 H   -0.4305340   -2.5115760   -0.3988400  0.00    0.0953855   -0.0486870   -0.0588052
 H   -2.0011470   -1.1451090    0.8039470  0.00    0.1000539   -0.0595949   -0.0653387
12
 Energy =    -413.2551642721
 C    0.7143947    1.0062121    0.5509713  0.00    0.1389832    0.3980968    0.1039577
 N    1.5013928    0.0793919   -0.1497675  0.00   -0.1201050   -0.0717945    0.0213113
 C    1.1523732   -1.2061622   -0.5254662  0.00    0.2650062   -0.3047867   -0.2352824
 N   -0.1304322   -1.5707799   -0.1418072  0.00   -0.1257522    0.0086423    0.0573273
 C   -0.9879388   -0.7417488    0.5481028  0.00   -0.0013243    0.1779563    0.0732709
 C   -0.6190678    0.5164866    0.9038738  0.00    0.0027211   -0.1200886   -0.0514363
 O    1.8904813   -1.9619977   -1.1374476  0.00   -0.1385510    0.1873212    0.1347371
 H   -1.2774726    1.1942103    1.4485363  0.00   -0.0371126   -0.0038411    0.0155936
 O    1.1480463    2.1178706    0.8221136  0.00   -0.0608637   -0.2192554   -0.0641584
 H    2.4380934    0.3773524   -0.4162216  0.00    0.0230346    0.0235881   -0.0004153
 H   -0.4178647   -2.5100714   -0.4011812  0.00    0.0302757   -0.0145754   -0.0192424
 H   -1.9777737   -1.1415198    0.7966145  0.00    0.0236880   -0.0612629   -0.0356630
12
 Energy =    -413.2556167049
 C    0.7159109    1.0169723    0.5528412  0.00   -0.0108929    0.0243037    0.0176743
 N    1.4921852    0.0755370   -0.1485236  0.00    0.0278439    0.0021873   -0.0132674
 C    1.1558068   -1.2153729   -0.5282256  0.00   -0.0147539    0.0041760    0.0140687
 N   -0.1316065   -1.5713105   -0.1422264  0.00   -0.0640472   -0.0229476    0.0102495
 C   -0.9843280   -0.7358587    0.5478600  0.00   -0.0087159    0.0441825    0.0187366
 C   -0.6178008    0.5189038    0.9066777  0.00    0.0134665    0.0133315    0.0058977
 O    1.8955185   -1.9624280   -1.1307418  0.00    0.0392704   -0.0228645   -0.0300938
 H   -1.2803628    1.1887302    1.4602222  0.00   -0.0177556   -0.0174230   -0.0098274
 O    1.1532393    2.1210101    0.8150085  0.00    0.0243279    0.0022435   -0.0084770
 H    2.4293394    0.3758402   -0.4171680  0.00    0.0002505    0.0103999    0.0061649
 H   -0.4207618   -2.5100341   -0.4040774  0.00    0.0052213   -0.0006249   -0.0014970
 H   -1.9729082   -1.1427453    0.7866742  0.00    0.0057848   -0.0369643   -0.0096289
12
 Energy =    -413.2556325699
 C    0.7169528    1.0182739    0.5546780  0.00   -0.0330627   -0.0253512   -0.0020083
 N    1.4916688    0.0746289   -0.1470453  0.00    0.0425280    0.0062149   -0.0132409
 C    1.1553658   -1.2159066   -0.5306194  0.00   -0.0491539    0.0439118    0.0371000
 N   -0.1323315   -1.5714436   -0.1423233  0.00   -0.0391914   -0.0261628    0.0095535
 C   -0.9832787   -0.7355584    0.5496612  0.00   -0.0085089    0.0221929    0.0127767
 C   -0.6186892    0.5204712    0.9048932  0.00    0.0146464    0.0324739    0.0051681
 O    1.8936719   -1.9598228   -1.1370258  0.00    0.0532936   -0.0440016   -0.0402679
 H   -1.2868018    1.1928031    1.4490739  0.00   -0.0087504   -0.0225036    0.0010422
 O    1.1569673    2.1198420    0.8184297  0.00    0.0312279    0.0288045   -0.0003891
 H    2.4302497    0.3740913   -0.4125332  0.00   -0.0038741    0.0083555    0.0043335
 H   -0.4216943   -2.5101420   -0.4043128  0.00    0.0019142    0.0008357    0.0019413
 H   -1.9678488   -1.1479931    0.7954446  0.00   -0.0010687   -0.0247699   -0.0160089
12
 Energy =    -413.2556562864
 C    0.7176572    1.0189571    0.5553481  0.00   -0.0204822   -0.0196454    0.0031390
 N    1.4922669    0.0752289   -0.1474844  0.00    0.0195440   -0.0067467   -0.0087952
 C    1.1546799   -1.2155536   -0.5314113  0.00   -0.0235847    0.0230648    0.0130180
 N   -0.1328138   -1.5724860   -0.1400918  0.00   -0.0087060   -0.0118117    0.0013965
 C   -0.9841234   -0.7347611    0.5490923  0.00   -0.0071301    0.0168477    0.0120426
 C   -0.6190357    0.5213295    0.9050992  0.00    0.0199417    0.0239202   -0.0019527
 O    1.8925834   -1.9584348   -1.1420985  0.00    0.0174004   -0.0154868   -0.0073956
 H   -1.2883986    1.1915362    1.4498769  0.00   -0.0087341   -0.0142511   -0.0005910
 O    1.1605767    2.1197341    0.8197100  0.00    0.0138696    0.0115324   -0.0022140
 H    2.4307667    0.3751718   -0.4126109  0.00   -0.0040986    0.0061129    0.0015909
 H   -0.4197873   -2.5135325   -0.3960403  0.00   -0.0004717    0.0024094   -0.0034245
 H   -1.9701400   -1.1479457    0.7889317  0.00    0.0024517   -0.0159458   -0.0068141
12
 Energy =    -413.2556641392
 C    0.7178810    1.0195310    0.5550629  0.00   -0.0062716   -0.0023980    0.0037825
 N    1.4929309    0.0757814   -0.1479852  0.00   -0.0050651   -0.0162968   -0.0054335
 C    1.1547273   -1.2157407   -0.5300346  0.00    0.0077944   -0.0045806   -0.0061838
 N   -0.1341141   -1.5723032   -0.1404624  0.00    0.0130072    0.0016431   -0.0041785
 C   -0.9845590   -0.7343743    0.5494125  0.00   -0.0066766    0.0143388    0.0087861
 C   -0.6189386    0.5217988    0.9060915  0.00    0.0227343    0.0106147   -0.0060611
 O    1.8948854   -1.9606503   -1.1379279  0.00   -0.0178287    0.0142086    0.0139111
 H   -1.2889952    1.1895312    1.4525154  0.00   -0.0076807   -0.0067498    0.0006087
 O    1.1625171    2.1206232    0.8178528  0.00   -0.0027776   -0.0078417   -0.0034012
 H    2.4303679    0.3771028   -0.4149612  0.00   -0.0016928    0.0028147    0.0027226
 H   -0.4223773   -2.5120764   -0.3993766  0.00    0.0008289    0.0004224   -0.0012802
 H   -1.9700935   -1.1499794    0.7881338  0.00    0.0036283   -0.0061754   -0.0032728
12
 Energy =    -413.2556673100
 C    0.7175041    1.0199905    0.5540597  0.00   -0.0047484   -0.0057865   -0.0027620
 N    1.4928517    0.0752111   -0.1474699  0.00   -0.0021281   -0.0088953   -0.0001548
 C    1.1545745   -1.2157755   -0.5298924  0.00    0.0018254    0.0021251    0.0000498
 N   -0.1343411   -1.5716342   -0.1410608  0.00    0.0080487    0.0017359   -0.0033745
 C   -0.9841954   -0.7338337    0.5498332  0.00   -0.0054834    0.0038391    0.0039113
 C   -0.6185367    0.5222126    0.9065514  0.00    0.0144799    0.0074614   -0.0015990
 O    1.8945165   -1.9606825   -1.1372000  0.00   -0.0061432    0.0022487    0.0040083
 H   -1.2890470    1.1880365    1.4547731  0.00   -0.0050370   -0.0033926   -0.0008233
 O    1.1618606    2.1217785    0.8134652  0.00   -0.0005118   -0.0007356    0.0022086
 H    2.4312834    0.3758751   -0.4115366  0.00   -0.0018487    0.0029358   -0.0006126
 H   -0.4233595   -2.5106319   -0.4018892  0.00   -0.0000936   -0.0000157    0.0001351
 H   -1.9688792   -1.1513024    0.7886874  0.00    0.0016404   -0.0015203   -0.0009870
12
 Energy =    -413.2556674493
 C    0.7180657    1.0191907    0.5553876  0.00    0.0029917   -0.0060573   -0.0003051
 N    1.4921988    0.0750831   -0.1483813  0.00   -0.0005661    0.0046696   -0.0017920
 C    1.1545252   -1.2158125   -0.5294598  0.00   -0.0036769    0.0062729    0.0050170
 N   -0.1337580   -1.5713305   -0.1402239  0.00   -0.0026496   -0.0005533    0.0015874
 C   -0.9839829   -0.7329878    0.5497745  0.00   -0.0023212   -0.0067503   -0.0025662
 C   -0.6182174    0.5229697    0.9062813  0.00   -0.0013518    0.0026463    0.0003730
 O    1.8941515   -1.9612173   -1.1356237  0.00    0.0078623   -0.0095947   -0.0088748
 H   -1.2911842    1.1883366    1.4520942  0.00    0.0002068   -0.0006598    0.0011672
 O    1.1647885    2.1190417    0.8183146  0.00   -0.0003275    0.0077664    0.0000238
 H    2.4284408    0.3783409   -0.4169516  0.00    0.0018186   -0.0001330    0.0032956
 H   -0.4223193   -2.5107623   -0.3999392  0.00   -0.0010885   -0.0002529    0.0006269
 H   -1.9684768   -1.1516082    0.7870483  0.00   -0.0008976    0.0026461    0.0014471
12
 Energy =    -413.2556688741
 C    0.7177479    1.0193650    0.5545620  0.00    0.0031549    0.0035417   -0.0004855
 N    1.4927366    0.0750038   -0.1477843  0.00   -0.0016119   -0.0008164    0.0008708
 C    1.1544464   -1.2155859   -0.5298398  0.00    0.0030109   -0.0019643   -0.0025729
 N   -0.1339388   -1.5712796   -0.1406282  0.00   -0.0014122    0.0001737    0.0011743
 C   -0.9840554   -0.7333396    0.5499589  0.00   -0.0008202   -0.0013855   -0.0000146
 C   -0.6182261    0.5227667    0.9062553  0.00    0.0003161    0.0002369   -0.0002956
 O    1.8937041   -1.9609104   -1.1372936  0.00   -0.0005213    0.0000706    0.0006360
 H   -1.2905470    1.1880710    1.4528892  0.00   -0.0008105   -0.0006389    0.0006982
 O    1.1631333    2.1204631    0.8155553  0.00   -0.0011800   -0.0012356    0.0002067
 H    2.4303492    0.3769179   -0.4130626  0.00    0.0003430    0.0012425   -0.0000709
 H   -0.4227553   -2.5105161   -0.4007786  0.00   -0.0001930   -0.0002356   -0.0000472
 H   -1.9683629   -1.1517120    0.7884874  0.00   -0.0002757    0.0010110   -0.0000992
12
 Energy =    -413.2556687841
 C    0.7177947    1.0195282    0.5545542  0.00    0.0006579   -0.0006277   -0.0006260
 N    1.4926604    0.0750302   -0.1478480  0.00   -0.0001212   -0.0008951   -0.0001247
 C    1.1545639   -1.2157531   -0.5298143  0.00    0.0004043    0.0004914    0.0000077
 N   -0.1339736   -1.5713478   -0.1406090  0.00    0.0004171    0.0001676   -0.0001218
 C   -0.9840779   -0.7333018    0.5498784  0.00   -0.0005093   -0.0015373   -0.0003931
 C   -0.6181723    0.5227215    0.9063590  0.00    0.0010213    0.0015322    0.0002203
 O    1.8939477   -1.9611227   -1.1369824  0.00   -0.0004162   -0.0001742    0.0000768
 H   -1.2903919    1.1877986    1.4534472  0.00   -0.0007733   -0.0006172   -0.0001025
 O    1.1631114    2.1206036    0.8154700  0.00   -0.0002653    0.0002209    0.0003290
 H    2.4301827    0.3771130   -0.4133826  0.00   -0.0000568    0.0007360    0.0002184
 H   -0.4228359   -2.5105853   -0.4007533  0.00   -0.0002554    0.0000221    0.0000559
 H   -1.9685772   -1.1514403    0.7880018  0.00   -0.0001031    0.0006815    0.0004601
12
 Energy =    -413.2556689234
 C    0.7178394    1.0195002    0.5545493  0.00    0.0002052   -0.0001647    0.0001070
 N    1.4926999    0.0750164   -0.1478573  0.00    0.0001353   -0.0003995   -0.0002027
 C    1.1545907   -1.2157592   -0.5298279  0.00   -0.0001627    0.0001080    0.0000128
 N   -0.1339486   -1.5713501   -0.1405927  0.00    0.0000088    0.0000454    0.0000332
 C   -0.9840651   -0.7333165    0.5498957  0.00    0.0000942   -0.0006549   -0.0004695
 C   -0.6181408    0.5227433    0.9062949  0.00    0.0001732    0.0005852    0.0003606
 O    1.8938943   -1.9611867   -1.1370107  0.00    0.0001052    0.0000491    0.0000458
 H   -1.2905256    1.1877337    1.4532959  0.00   -0.0002814   -0.0003664    0.0000006
 O    1.1631308    2.1205616    0.8155943  0.00    0.0000048    0.0000731   -0.0002883
 H    2.4301824    0.3772374   -0.4134010  0.00   -0.0000791    0.0003043    0.0001607
 H   -0.4228648   -2.5105653   -0.4007696  0.00   -0.0000521    0.0000321    0.0000533
 H   -1.9685606   -1.1513709    0.7881502  0.00   -0.0001514    0.0003883    0.0001866
